atp
  Mrv15b2304042515343D          

 47 49  0  0  1  0            999 V2000
    1.4612    6.7987   -2.0712 P   0  0  2  0  0  0  0  0  0  0  0  0
    1.7624    6.2083   -3.4612 O   0  0  0  0  0  0  0  0  0  0  0  0
    1.8424    5.8524   -1.0549 O   0  0  0  0  0  0  0  0  0  0  0  0
   -0.0451    7.0972   -1.9556 O   0  0  0  0  0  0  0  0  0  0  0  0
    2.0295    8.8262   -0.4556 P   0  0  2  0  0  0  0  0  0  0  0  0
    3.2688    9.5403   -0.1134 O   0  0  0  0  0  0  0  0  0  0  0  0
    1.7690    7.7905    0.7005 O   0  0  0  0  0  0  0  0  0  0  0  0
    2.2662    8.1148   -1.8818 O   0  0  0  0  0  0  0  0  0  0  0  0
   -0.6603    9.4763   -0.6058 P   0  0  1  0  0  0  0  0  0  0  0  0
   -0.9540    8.3680    0.5117 O   0  0  0  0  0  0  0  0  0  0  0  0
   -1.5459   10.6071   -0.3286 O   0  0  0  0  0  0  0  0  0  0  0  0
    0.8659    9.9290   -0.5157 O   0  0  0  0  0  0  0  0  0  0  0  0
   -0.9823    8.7870   -1.9963 O   0  0  0  0  0  0  0  0  0  0  0  0
   -0.5297    9.6094   -3.0556 C   0  0  1  0  0  0  0  0  0  0  0  0
   -0.4365    8.8466   -4.3859 C   0  0  1  0  0  0  0  0  0  0  0  0
   -1.6875    8.1947   -4.6178 O   0  0  0  0  0  0  0  0  0  0  0  0
   -0.1294    9.7644   -5.5990 C   0  0  1  0  0  0  0  0  0  0  0  0
    1.2084    9.5685   -6.0707 O   0  0  0  0  0  0  0  0  0  0  0  0
   -1.2077    9.3093   -6.6077 C   0  0  1  0  0  0  0  0  0  0  0  0
   -0.7007    9.1123   -7.9244 O   0  0  0  0  0  0  0  0  0  0  0  0
   -1.7700    7.9826   -6.0264 C   0  0  2  0  0  0  0  0  0  0  0  0
   -3.1222    7.6170   -6.3222 N   0  0  0  0  0  0  0  0  0  0  0  0
   -4.0307    8.2663   -7.0838 C   0  0  0  0  0  0  0  0  0  0  0  0
   -5.2042    7.6045   -7.1380 N   0  0  0  0  0  0  0  0  0  0  0  0
   -5.0269    6.5134   -6.3957 C   0  0  0  0  0  0  0  0  0  0  0  0
   -5.8855    5.4359   -6.0956 C   0  0  0  0  0  0  0  0  0  0  0  0
   -7.1350    5.3925   -6.5815 N   0  0  1  0  0  0  0  0  0  0  0  0
   -5.4110    4.4371   -5.3065 N   0  0  0  0  0  0  0  0  0  0  0  0
   -4.1456    4.4513   -4.7987 C   0  0  0  0  0  0  0  0  0  0  0  0
   -3.3051    5.4940   -5.0795 N   0  0  0  0  0  0  0  0  0  0  0  0
   -3.7384    6.5023   -5.8690 C   0  0  0  0  0  0  0  0  0  0  0  0
    1.2548    5.3785   -3.5806 H   0  0  0  0  0  0  0  0  0  0  0  0
   -0.5527    6.2674   -2.0750 H   0  0  0  0  0  0  0  0  0  0  0  0
    1.6725    8.2677    1.5510 H   0  0  0  0  0  0  0  0  0  0  0  0
   -1.8933    8.0932    0.4604 H   0  0  0  0  0  0  0  0  0  0  0  0
   -1.2037   10.4583   -3.1700 H   0  0  0  0  0  0  0  0  0  0  0  0
    0.4348   10.0511   -2.8052 H   0  0  0  0  0  0  0  0  0  0  0  0
    0.3305    8.0808   -4.3251 H   0  0  0  0  0  0  0  0  0  0  0  0
   -0.2306   10.8407   -5.3969 H   0  0  0  0  0  0  0  0  0  0  0  0
    1.8418    9.7770   -5.3525 H   0  0  0  0  0  0  0  0  0  0  0  0
   -1.9813   10.0805   -6.6226 H   0  0  0  0  0  0  0  0  0  0  0  0
   -0.3211    9.9522   -8.2573 H   0  0  0  0  0  0  0  0  0  0  0  0
   -1.1253    7.1387   -6.3055 H   0  0  0  0  0  0  0  0  0  0  0  0
   -3.8634    9.1493   -7.5701 H   0  0  0  0  0  0  0  0  0  0  0  0
   -7.5741    4.5846   -6.2725 H   0  0  0  0  0  0  0  0  0  0  0  0
   -7.6293    6.1677   -6.2722 H   0  0  0  0  0  0  0  0  0  0  0  0
   -3.8219    3.6837   -4.2148 H   0  0  0  0  0  0  0  0  0  0  0  0
  1  4  1  0  0  0  0
  1  8  1  0  0  0  0
  2  1  1  0  0  0  0
  2 32  1  0  0  0  0
  3  1  2  0  0  0  0
  4 33  1  0  0  0  0
  5  6  2  0  0  0  0
  5  7  1  0  0  0  0
  5 12  1  0  0  0  0
  7 34  1  0  0  0  0
  8  5  1  0  0  0  0
  9 11  2  0  0  0  0
  9 10  1  0  0  0  0
  9 13  1  0  0  0  0
 10 35  1  0  0  0  0
 12  9  1  0  0  0  0
 15 14  1  0  0  0  0
 14 13  1  0  0  0  0
 14 36  1  0  0  0  0
 14 37  1  0  0  0  0
 15 16  1  0  0  0  0
 15 38  1  0  0  0  0
 16 21  1  0  0  0  0
 17 15  1  0  0  0  0
 17 19  1  0  0  0  0
 17 39  1  0  0  0  0
 17 18  1  0  0  0  0
 18 40  1  0  0  0  0
 19 21  1  0  0  0  0
 19 41  1  0  0  0  0
 19 20  1  0  0  0  0
 20 42  1  0  0  0  0
 21 22  1  0  0  0  0
 21 43  1  0  0  0  0
 22 23  1  0  0  0  0
 22 31  1  0  0  0  0
 23 24  2  0  0  0  0
 23 44  1  0  0  0  0
 24 25  1  0  0  0  0
 25 26  1  0  0  0  0
 26 28  2  0  0  0  0
 26 27  1  0  0  0  0
 27 45  1  0  0  0  0
 27 46  1  0  0  0  0
 29 28  1  0  0  0  0
 29 47  1  0  0  0  0
 30 29  2  0  0  0  0
 31 30  1  0  0  0  0
 31 25  2  0  0  0  0
M  END
